@<TRIPOS>MOLECULE
ONB
   17    17     1     0     0
SMALL
bcc


@<TRIPOS>ATOM
      1 NN          -2.5320     1.9630    -0.6890 no       565 ONB       0.313200
      2 CH          -0.1130     3.7360    -1.3530 c3       565 ONB      -0.068800
      3 CO1         -0.7630     2.7160    -2.3040 ca       565 ONB       0.003700
      4 CM1         -0.1320     2.5090    -3.5310 ca       565 ONB      -0.150000
      5 CP          -0.8560     1.8510    -4.4910 ca       565 ONB      -0.082000
      6 CM2         -2.0400     1.1830    -4.2700 ca       565 ONB      -0.147000
      7 CO2         -2.5270     1.1540    -2.9990 ca       565 ONB      -0.066000
      8 CN          -1.9120     1.9560    -2.0390 ca       565 ONB      -0.182200
      9 ON1         -2.8890     0.8730    -0.2240 o        565 ONB      -0.213500
     10 ON2         -2.8310     2.9560    -0.0350 o        565 ONB      -0.213500
     11 HH3          0.8170     3.9060    -1.4380 hc       565 ONB       0.065033
     12 HH1         -0.2020     3.3510    -0.3350 hc       565 ONB       0.065033
     13 HH2         -0.6620     4.6420    -1.5660 hc       565 ONB       0.065033
     14 HM1          0.8960     2.8270    -3.7790 ha       565 ONB       0.147000
     15 HO          -3.3980     0.5320    -2.7920 ha       565 ONB       0.172000
     16 HP          -0.4680     1.8570    -5.4990 ha       565 ONB       0.143000
     17 HM2         -2.5650     0.6980    -5.0790 ha       565 ONB       0.148000
@<TRIPOS>BOND
     1     1     8 1   
     2     1     9 1   
     3     1    10 1   
     4     2     3 1   
     5     2    11 1   
     6     2    12 1   
     7     2    13 1   
     8     3     4 ar  
     9     3     8 ar  
    10     4     5 ar  
    11     4    14 1   
    12     5     6 ar  
    13     5    16 1   
    14     6     7 ar  
    15     6    17 1   
    16     7     8 ar  
    17     7    15 1   
@<TRIPOS>SUBSTRUCTURE
     1 ONB         1 TEMP              0 ****  ****    0 ROOT
