@<TRIPOS>MOLECULE
ONB
   39    40     1     0     0
SMALL
bcc


@<TRIPOS>ATOM
      1 N            8.3710     1.5170    -0.3370 n4       487 ONB      -0.834600
      2 CA           7.3820     2.1080     0.5490 c3       487 ONB      -0.069500
      3 C            8.1290     2.8810     1.6060 c        487 ONB       0.936600
      4 O            9.3410     2.6100     2.1270 o        487 ONB      -0.756300
      5 CB           6.5920     0.9920     1.2190 c3       487 ONB      -0.046100
      6 CG           5.6680     0.1700     0.3650 ca       487 ONB      -0.146300
      7 CD1          4.6610     0.9730    -0.1850 ca       487 ONB      -0.106500
      8 CD2          5.6720    -1.1750     0.0670 ca       487 ONB      -0.106500
      9 CE1          3.6710     0.4670    -0.9730 ca       487 ONB      -0.170500
     10 CE2          4.6740    -1.7160    -0.7290 ca       487 ONB      -0.170500
     11 CZ           3.6550    -0.8770    -1.2360 ca       487 ONB       0.117100
     12 CH           1.6980    -0.7440    -2.8610 c3       487 ONB       0.162700
     13 CM1          0.8580     0.6280    -0.9510 ca       487 ONB      -0.129000
     14 CM2         -1.1980     1.9420    -1.0480 ca       487 ONB      -0.137000
     15 CN          -0.5310     0.6310    -2.9000 ca       487 ONB      -0.175200
     16 NN          -0.8420     0.1780    -4.2830 no       487 ONB       0.311200
     17 ON1         -1.8590     0.6510    -4.8050 o        487 ONB      -0.211500
     18 ON2         -0.1910    -0.6120    -4.9500 o        487 ONB      -0.211500
     19 CO1          0.6340     0.1900    -2.2550 ca       487 ONB      -0.051300
     20 CP          -0.0620     1.4920    -0.4180 ca       487 ONB      -0.082000
     21 CO2         -1.4480     1.4960    -2.3090 ca       487 ONB      -0.068000
     22 OH           2.6180    -1.3530    -2.0030 os       487 ONB      -0.324900
     23 H01          8.8410     0.7620     0.1400 hn       487 ONB       0.445133
     24 H02          7.9120     1.1600    -1.1630 hn       487 ONB       0.445133
     25 H03          9.0470     2.2190    -0.6040 hn       487 ONB       0.445133
     26 HA           6.6890     2.7660     0.0210 hx       487 ONB       0.088700
     27 HB1          7.2560     0.3010     1.7210 hc       487 ONB       0.092200
     28 HB2          6.0020     1.3970     2.0430 hc       487 ONB       0.092200
     29 HD1          4.6010     2.0470    -0.0210 ha       487 ONB       0.141500
     30 HD2          6.4520    -1.8270     0.4480 ha       487 ONB       0.141500
     31 HE1          2.9660     1.2460    -1.3210 ha       487 ONB       0.151500
     32 HE2          4.6690    -2.7740    -0.9650 ha       487 ONB       0.151500
     33 HH1          2.3320    -0.1480    -3.5200 h1       487 ONB       0.096200
     34 HH2          1.1000    -1.5050    -3.3400 h1       487 ONB       0.096200
     35 HM1          1.7180     0.3310    -0.3230 ha       487 ONB       0.164000
     36 HO          -2.3580     1.8360    -2.8040 ha       487 ONB       0.174000
     37 OXT          7.4320     3.8230     2.2260 o        487 ONB      -0.756300
     38 HM2         -1.8720     2.6290    -0.5570 ha       487 ONB       0.152000
     39 HP           0.1210     1.8510     0.5840 ha       487 ONB       0.150000
@<TRIPOS>BOND
     1     1     2 1   
     2     1    23 1   
     3     1    24 1   
     4     1    25 1   
     5     2     3 1   
     6     2     5 1   
     7     2    26 1   
     8     3     4 1   
     9     3    37 1   
    10     5     6 1   
    11     5    27 1   
    12     5    28 1   
    13     6     7 ar  
    14     6     8 ar  
    15     7     9 ar  
    16     7    29 1   
    17     8    10 ar  
    18     8    30 1   
    19     9    11 ar  
    20     9    31 1   
    21    10    11 ar  
    22    10    32 1   
    23    11    22 1   
    24    12    19 1   
    25    12    22 1   
    26    12    33 1   
    27    12    34 1   
    28    13    19 ar  
    29    13    20 ar  
    30    13    35 1   
    31    14    20 ar  
    32    14    21 ar  
    33    14    38 1   
    34    15    16 1   
    35    15    19 ar  
    36    15    21 ar  
    37    16    17 1   
    38    16    18 1   
    39    20    39 1   
    40    21    36 1   
@<TRIPOS>SUBSTRUCTURE
     1 ONB         1 TEMP              0 ****  ****    0 ROOT
