@<TRIPOS>MOLECULE
NPY
   39    41     1     0     0
SMALL
bcc


@<TRIPOS>ATOM
      1 N            6.8350     0.5980     0.8800 n2       487 NPY      -0.248000
      2 NN          -2.5320     1.9630    -0.6890 no       487 NPY       0.571000
      3 CA           5.8690    -0.2230     0.1700 c3       487 NPY      -0.056000
      4 C            6.4960    -1.5780    -0.0380 c1       487 NPY       0.188000
      5 CH          -0.1130     3.7360    -1.3530 c3       487 NPY       0.005000
      6 CO1         -0.7630     2.7160    -2.3040 ca       487 NPY      -0.027000
      7 CM1         -0.1320     2.5090    -3.5310 ca       487 NPY      -0.121000
      8 CP          -0.8560     1.8510    -4.4910 ca       487 NPY       0.061000
      9 CM2         -2.0400     1.1830    -4.2700 ca       487 NPY      -0.002000
     10 CT          -1.1760     0.4990    -6.1390 c3       487 NPY       0.097000
     11 CP2         -2.5270     1.1540    -2.9990 ca       487 NPY      -0.059000
     12 CN          -1.9120     1.9560    -2.0390 ca       487 NPY      -0.141000
     13 CB           5.5930     0.4070    -1.1890 c3       487 NPY      -0.148000
     14 CG           4.6030     1.5340    -1.2560 ca       487 NPY      -0.098000
     15 CD1          3.2910     1.0420    -1.2770 ca       487 NPY      -0.094000
     16 CD2          4.7820     2.9010    -1.2610 ca       487 NPY      -0.094000
     17 CE1          2.2040     1.8600    -1.1870 ca       487 NPY      -0.167000
     18 CE2          3.6880     3.7500    -1.3560 ca       487 NPY      -0.167000
     19 CZ           2.3790     3.2090    -1.3430 ca       487 NPY       0.064000
     20 O            7.7040    -1.7650     0.1070 o        487 NPY      -0.190000
     21 OM          -2.4640     0.6600    -5.4850 os       487 NPY      -0.206000
     22 OP          -0.5230     1.7530    -5.8640 os       487 NPY      -0.204000
     23 ON1         -2.8890     0.8730    -0.2240 o        487 NPY      -0.359500
     24 ON2         -2.8310     2.9560    -0.0350 o        487 NPY      -0.359500
     25 OPH          1.2560     3.9870    -1.4780 os       487 NPY      -0.211000
     26 HH1         -0.2020     3.3510    -0.3350 h1       487 NPY       0.138000
     27 HH2         -0.6620     4.6420    -1.5660 h1       487 NPY       0.138000
     28 HM           0.8960     2.8270    -3.7790 ha       487 NPY       0.188000
     29 HT1         -0.6170    -0.3350    -5.6960 h2       487 NPY       0.122500
     30 HT2         -1.2970     0.3310    -7.2050 h2       487 NPY       0.122500
     31 HO          -3.3980     0.5320    -2.7920 ha       487 NPY       0.194000
     32 HB1          6.5100     0.7640    -1.6400 hc       487 NPY       0.102000
     33 HB2          5.2640    -0.3590    -1.8940 hc       487 NPY       0.102000
     34 HD1          3.0510    -0.0140    -1.3730 ha       487 NPY       0.137000
     35 HD2          5.7750     3.3350    -1.1980 ha       487 NPY       0.137000
     36 HE1          1.2670     1.3000    -1.0070 ha       487 NPY       0.146500
     37 HE2          3.8290     4.8210    -1.4350 ha       487 NPY       0.146500
     38 HA           4.9270    -0.3230     0.7130 h1       487 NPY       0.156000
     39 H1           7.7070     0.6410     0.3240 hn       487 NPY       0.138000
@<TRIPOS>BOND
     1     1     3 1   
     2     1    39 1   
     3     2    12 1   
     4     2    23 1   
     5     2    24 1   
     6     3     4 1   
     7     3    13 1   
     8     3    38 1   
     9     4    20 1   
    10     5     6 1   
    11     5    25 1   
    12     5    26 1   
    13     5    27 1   
    14     6     7 1   
    15     6    12 1   
    16     7     8 1   
    17     7    28 1   
    18     8     9 1   
    19     8    22 1   
    20     9    11 1   
    21     9    21 1   
    22    10    21 1   
    23    10    22 1   
    24    10    29 1   
    25    10    30 1   
    26    11    12 1   
    27    11    31 1   
    28    13    14 1   
    29    13    32 1   
    30    13    33 1   
    31    14    15 1   
    32    14    16 1   
    33    15    17 1   
    34    15    34 1   
    35    16    18 1   
    36    16    35 1   
    37    17    19 1   
    38    17    36 1   
    39    18    19 1   
    40    18    37 1   
    41    19    25 1   
@<TRIPOS>SUBSTRUCTURE
     1 NPY         1 TEMP              0 ****  ****    0 ROOT
