@<TRIPOS>MOLECULE
NPY
   20    21     1     0     0
SMALL
bcc


@<TRIPOS>ATOM
      1 NN          -2.5320     1.9630    -0.6890 no       565 NPY       0.317200
      2 CH          -0.1130     3.7360    -1.3530 c3       565 NPY      -0.068800
      3 CO1         -0.7630     2.7160    -2.3040 ca       565 NPY       0.015700
      4 CM1         -0.1320     2.5090    -3.5310 ca       565 NPY      -0.142000
      5 CP          -0.8560     1.8510    -4.4910 ca       565 NPY       0.108100
      6 CM2         -2.0400     1.1830    -4.2700 ca       565 NPY       0.036100
      7 CT          -1.1760     0.4990    -6.1390 c3       565 NPY       0.320200
      8 CP2         -2.5270     1.1540    -2.9990 ca       565 NPY      -0.055000
      9 CN          -1.9120     1.9560    -2.0390 ca       565 NPY      -0.192200
     10 OM          -2.4640     0.6600    -5.4850 os       565 NPY      -0.323900
     11 OP          -0.5230     1.7530    -5.8640 os       565 NPY      -0.324900
     12 ON1         -2.8890     0.8730    -0.2240 o        565 NPY      -0.211000
     13 ON2         -2.8310     2.9560    -0.0350 o        565 NPY      -0.211000
     14 HH3          0.8170     3.9060    -1.4380 hc       565 NPY       0.068033
     15 HH1         -0.2020     3.3510    -0.3350 hc       565 NPY       0.068033
     16 HH2         -0.6620     4.6420    -1.5660 hc       565 NPY       0.068033
     17 HM           0.8960     2.8270    -3.7790 ha       565 NPY       0.170000
     18 HT1         -0.6170    -0.3350    -5.6960 h2       565 NPY       0.081700
     19 HT2         -1.2970     0.3310    -7.2050 h2       565 NPY       0.081700
     20 HO          -3.3980     0.5320    -2.7920 ha       565 NPY       0.193000
@<TRIPOS>BOND
     1     1     9 1   
     2     1    12 1   
     3     1    13 1   
     4     2     3 1   
     5     2    14 1   
     6     2    15 1   
     7     2    16 1   
     8     3     4 ar  
     9     3     9 ar  
    10     4     5 ar  
    11     4    17 1   
    12     5     6 ar  
    13     5    11 1   
    14     6     8 ar  
    15     6    10 1   
    16     7    10 1   
    17     7    11 1   
    18     7    18 1   
    19     7    19 1   
    20     8     9 ar  
    21     8    20 1   
@<TRIPOS>SUBSTRUCTURE
     1 NPY         1 TEMP              0 ****  ****    0 ROOT
